/*--------------------------------*- C++ -*----------------------------------*\
| =========                 |                                                 |
| \\      /  F ield         | OpenFOAM: The Open Source CFD Toolbox           |
|  \\    /   O peration     | Version:  v2212                                 |
|   \\  /    A nd           | Website:  www.openfoam.com                      |
|    \\/     M anipulation  |                                                 |
\*---------------------------------------------------------------------------*/
FoamFile
{
    version     2.0;
    format      ascii;
    class       dictionary;
    object      blockMeshDict;
}
// * * * * * * * * * * * * * * * * * * * * * * * * * * * * * * * * * * * * * //

scale    1;


xmin    -1;
xmax     1;
ymin    -1;
ymax     1;
zmin    -0.05;
zmax     0;

xmin_b    -.5;
xmax_b     .5;
ymin_b    -.5;
ymax_b     .5;



vertices
(
    // water
    ( $xmin $ymin $zmin )
    ( $xmax $ymin $zmin )
    ( $xmax $ymax $zmin )
    ( $xmin $ymax $zmin )

    ( $xmin $ymin $zmax )
    ( $xmax $ymin $zmax )
    ( $xmax $ymax $zmax )
    ( $xmin $ymax $zmax )

    // blade
    ( $xmin_b $ymin_b $zmin )
    ( $xmax_b $ymin_b $zmin )
    ( $xmax_b $ymax_b $zmin )
    ( $xmin_b $ymax_b $zmin )

    ( $xmin_b $ymin_b $zmax )
    ( $xmax_b $ymin_b $zmax )
    ( $xmax_b $ymax_b $zmax )
    ( $xmin_b $ymax_b $zmax )

);

blocks
(
    hex (0 1 2 3 4 5 6 7) ( 20 40 1 ) simpleGrading ( 1 1 1 )
    hex (8 9 10 11 12 13 14 15) blade ( 20 40 1 ) simpleGrading ( 1 1 1 )
);

edges
(
);

boundary
(
    overset1
    {
        type overset;
        faces
        (
            ( 8 12 15 11)
            (10 14 13  9)
            (11 15 14 10)
            ( 9 13 12  8)
        );
    }

    walls
    {
        type wall;
        faces
        (
            (3 7 6 2)
            (1 5 4 0)
            (0 4 7 3)
        );
    }
);


// ************************************************************************* //
