/*--------------------------------*- C++ -*----------------------------------*\
| =========                 |                                                 |
| \\      /  F ield         | OpenFOAM: The Open Source CFD Toolbox           |
|  \\    /   O peration     | Version:  2212                                  |
|   \\  /    A nd           | Website:  www.openfoam.com                      |
|    \\/     M anipulation  |                                                 |
\*---------------------------------------------------------------------------*/
FoamFile
{
    version     2.0;
    format      ascii;
    arch        "LSB;label=32;scalar=64";
    class       polyBoundaryMesh;
    location    "constant/polyMesh";
    object      boundary;
}
// * * * * * * * * * * * * * * * * * * * * * * * * * * * * * * * * * * * * * //

3
(
    overset1
    {
        type            overset;
        nFaces          120;
        startFace       3080;
        faces           ( ( 8 12 15 11 ) ( 10 14 13 9 ) ( 11 15 14 10 ) ( 9 13 12 8 ) );
    }
    walls
    {
        type            wall;
        inGroups        1(wall);
        nFaces          80;
        startFace       3200;
    }
    defaultFaces
    {
        type            empty;
        inGroups        1(empty);
        nFaces          3240;
        startFace       3280;
    }
)

// ************************************************************************* //
